Base_HO_2024/Base_HO_Min_2024_JUNIO.raw
@!IC,SBASE,REV,XFRRAT,NXFRAT,BASFRQ
0,  100.00, 35,     0,     1, 60.00     / PSS(R)E-35.3    TUE, APR 30 2024  15:28


GENERAL, THRSHZ=0.0001, PQBRAK=0.7, BLOWUP=5.0, MaxIsolLvls=4, CAMaxReptSln=20, ChkDupCntLbl=0
GAUSS, ITMX=100, ACCP=1.6, ACCQ=1.6, ACCM=1.0, TOL=0.0001
NEWTON, ITMXN=20, ACCN=1.0, TOLN=0.1, VCTOLQ=0.1, VCTOLV=0.00001, DVLIM=0.99, NDVFCT=0.99
ADJUST, ADJTHR=0.005, ACCTAP=1.0, TAPLIM=0.05, SWVBND=100.0, MXTPSS=99, MXSWIM=10
TYSL, ITMXTY=20, ACCTY=1.0, TOLTY=0.00001
SOLVER, FNSL, ACTAPS=0, AREAIN=0, PHSHFT=0, DCTAPS=1, SWSHNT=1, FLATST=0, VARLIM=99, NONDIV=0
RATING, 1, "RATE1 ", "RATING SET 1                    "
RATING, 2, "RATE2 ", "RATING SET 2                    "
RATING, 3, "RATE3 ", "RATING SET 3                    "
RATING, 4, "RATE4 ", "RATING SET 4                    "
RATING, 5, "RATE5 ", "RATING SET 5                    "
RATING, 6, "RATE6 ", "RATING SET 6                    "
RATING, 7, "RATE7 ", "RATING SET 7                    "
RATING, 8, "RATE8 ", "RATING SET 8                    "
RATING, 9, "RATE9 ", "RATING SET 9                    "
RATING,10, "RATE10", "RATING SET 10                   "
RATING,11, "RATE11", "RATING SET 11                   "
RATING,12, "RATE12", "RATING SET 12                   "
0 / END OF SYSTEM-WIDE DATA, BEGIN BUS DATA
@!   I,'NAME        ', BASKV, IDE,AREA,ZONE,OWNER, VM,        VA,    NVHI,   NVLO,   EVHI,   EVLO
  3001,'CJN U01     ',  13.8000,3,   3,   3,   1,1.02000,   0.0000,1.10000,0.90000,1.10000,0.90000
  3002,'CJN U02     ',  13.8000,2,   3,   3,   1,1.02000,   0.0215,1.10000,0.90000,1.10000,0.90000
  3003,'CJN U03     ',  13.8000,2,   3,   3,   1,1.01732,  -3.6252,1.10000,0.90000,1.10000,0.90000
  3004,'CJN U04     ',  13.8000,2,   3,   3,   1,1.01732,  -3.6252,1.10000,0.90000,1.10000,0.90000
  3005,'CRL U01     ',  13.8000,2,   3,   3,   1,1.00436,  -4.7605,1.10000,0.90000,1.10000,0.90000
  3006,'CRL U02     ',  13.8000,2,   3,   3,   1,0.99721,  -5.9865,1.10000,0.90000,1.10000,0.90000
  3007,'RLN U01     ',  13.8000,2,   3,   3,   1,1.01000,  -4.6987,1.10000,0.90000,1.10000,0.90000
  3008,'RLN U02     ',  13.8000,2,   3,   3,   1,1.01000,  -4.6987,1.10000,0.90000,1.10000,0.90000
  3009,'RLN U03     ',  13.8000,2,   3,   3,   1,1.00240,  -6.0072,1.10000,0.90000,1.10000,0.90000
  3010,'RLN U04     ',  13.8000,2,   3,   3,   1,1.00240,  -6.0072,1.10000,0.90000,1.10000,0.90000
  3011,'NIS U01     ',  13.8000,2,   3,   3,   1,0.98998,   3.0078,1.10000,0.90000,1.10000,0.90000
  3012,'LUV B241    ',  13.8000,2,   3,   5,   2,1.01061,   0.0744,1.10000,0.90000,1.10000,0.90000
  3013,'LUV B242    ',  13.8000,2,   3,   5,   2,1.01061,   0.0744,1.10000,0.90000,1.10000,0.90000
  3014,'LUV B243    ',  13.8000,2,   3,   5,   2,1.01061,   0.0744,1.10000,0.90000,1.10000,0.90000
  3015,'LSL U01     ',  13.8000,2,   3,   5,   2,1.03587,   0.0744,1.10000,0.90000,1.10000,0.90000
  3016,'MFL B212    ',  13.8000,1,   3,   4,   1,0.99155,  -7.1575,1.10000,0.90000,1.10000,0.90000
  3017,'LPT B202    ',  13.8000,2,   3,   1,   1,1.00924,  -9.9279,1.10000,0.90000,1.10000,0.90000
  3018,'LPT B201    ',  13.8000,2,   3,   1,   1,1.01008,  52.1337,1.10000,0.90000,1.10000,0.90000
  3019,'ECH B274    ',  13.8000,2,   3,   1,   2,1.02228,  -9.5958,1.10000,0.90000,1.10000,0.90000
  3020,'TAL B217    ',  13.8000,2,   3,   1,   1,1.01501,  -7.6409,1.10000,0.90000,1.10000,0.90000
  3021,'TSZ B257    ',  13.8000,2,   3,   1,   1,0.98642,  -7.2929,1.10000,0.90000,1.10000,0.90000
  3022,'LVI B238    ',  13.8000,1,   3,   1,   1,1.01121, -10.9943,1.10000,0.90000,1.10000,0.90000
  3023,'CTE B209    ',  13.8000,2,   3,   2,   1,0.99990, -19.0305,1.10000,0.90000,1.10000,0.90000
  3024,'PGR B318    ',  34.5000,1,   3,   1,   1,0.99208, -10.5217,1.10000,0.90000,1.10000,0.90000
  3025,'CJL 4.16KV  ',   4.1600,1,   3,   3,   2,0.99946,  63.1568,1.10000,0.90000,1.10000,0.90000
  3026,'SFE B215    ',  13.8000,1,   3,   4,   1,0.98990,  -6.9271,1.10000,0.90000,1.10000,0.90000
  3027,'CTE B307    ',  34.5000,1,   3,   2,   1,1.00361,  11.7103,1.10000,0.90000,1.10000,0.90000
  3028,'SMT B234    ',  13.8000,1,   3,   1,   1,0.99660, -12.8514,1.10000,0.90000,1.10000,0.90000
  3029,'CRL B501    ', 138.0000,1,   3,   3,   1,0.99721,  24.0135,1.10000,0.90000,1.10000,0.90000
  3030,'SUY B515    ', 138.0000,1,   3,   4,   1,0.98368,  25.5346,1.10000,0.90000,1.10000,0.90000
  3031,'CDA B530    ', 138.0000,1,   3,   4,   1,0.98373,  25.5407,1.10000,0.90000,1.10000,0.90000
  3032,'CJN B601    ', 230.0000,1,   3,   3,   1,1.01732,  26.3748,1.10000,0.90000,1.10000,0.90000
  3033,'SUY B612    ', 230.0000,1,   3,   4,   1,1.02581,  27.4861,1.10000,0.90000,1.10000,0.90000
  3034,'PAV B620    ', 230.0000,1,   3,   5,   1,1.03587,  30.0744,1.10000,0.90000,1.10000,0.90000
  3035,'BER B205    ',  13.8000,1,   3,   1,   1,1.00518, -11.3375,1.10000,0.90000,1.10000,0.90000
  3036,'BER B410    ',  69.0000,1,   3,   1,   1,1.01191,  21.7351,1.10000,0.90000,1.10000,0.90000
  3037,'BER B507    ', 138.0000,1,   3,   1,   1,0.99166,  22.2405,1.10000,0.90000,1.10000,0.90000
  3038,'PGR B509    ', 138.0000,1,   3,   1,   1,1.01595,  23.0309,1.10000,0.90000,1.10000,0.90000
  3039,'BIJ 4.16KV  ',   4.1600,1,   3,   1,   2,1.01619, -11.3410,1.10000,0.90000,1.10000,0.90000
  3040,'BIJ B562    ', 138.0000,1,   3,   1,   1,0.98310,  23.1417,1.10000,0.90000,1.10000,0.90000
  3042,'BOR B332    ',  34.5000,2,   3,   2,   1,1.01358,   4.6741,1.10000,0.90000,1.10000,0.90000
  3043,'BOR B571    ', 138.0000,1,   3,   2,   1,0.99493,  10.0411,1.10000,0.90000,1.10000,0.90000
  3044,'BVI B218    ',  13.8000,1,   3,   1,   1,1.00490, -10.0440,1.10000,0.90000,1.10000,0.90000
  3045,'BVI B528    ', 138.0000,1,   3,   1,   1,0.99118,  22.1267,1.10000,0.90000,1.10000,0.90000
  3046,'CCE B330    ',  34.5000,1,   3,   2,   1,1.00553, -24.4923,1.10000,0.90000,1.10000,0.90000
  3047,'CCE B565    ', 138.0000,1,   3,   2,   1,0.99343,  10.6460,1.10000,0.90000,1.10000,0.90000
  3048,'CHM B239    ',  13.8000,1,   3,   1,   1,1.02228,  -9.5958,1.10000,0.90000,1.10000,0.90000
  3049,'CHM B539    ', 138.0000,1,   3,   1,   1,1.00199,  23.8759,1.10000,0.90000,1.10000,0.90000
  3050,'BVI B219    ',  13.8000,1,   3,   1,   1,1.01281, -10.3694,1.10000,0.90000,1.10000,0.90000
  3051,'CIR B221    ',  13.8000,1,   3,   1,   1,1.00520, -12.8514,1.10000,0.90000,1.10000,0.90000
  3052,'CIR B537    ', 138.0000,1,   3,   1,   1,0.99201,  22.1196,1.10000,0.90000,1.10000,0.90000
  3053,'CRL B301    ',  34.5000,1,   3,   3,   1,1.01912,  18.1598,1.10000,0.90000,1.10000,0.90000
  3054,'CRL 69KV    ',  69.0000,1,   3,   3,   1,1.00491,  26.4008,1.10000,0.90000,1.10000,0.90000
  3055,'CTE B513    ', 138.0000,1,   3,   2,   1,0.99526,  13.6525,1.10000,0.90000,1.10000,0.90000
  3056,'CYG B316    ',  34.5000,1,   3,   4,   1,0.99885,  -9.1270,1.10000,0.90000,1.10000,0.90000
  3057,'DAN B334    ',  34.5000,1,   3,   4,   1,0.99528,  15.4420,1.10000,0.90000,1.10000,0.90000
  3058,'DAN B432    ',  69.0000,1,   3,   4,   1,0.98121,  17.7962,1.10000,0.90000,1.10000,0.90000
  3059,'ELC B560    ', 138.0000,1,   3,   1,   1,0.98642,  22.7071,1.10000,0.90000,1.10000,0.90000
  3060,'CYG B536    ', 138.0000,1,   3,   4,   1,0.99019,  23.7141,1.10000,0.90000,1.10000,0.90000
  3061,'GMC B347    ',  34.5000,1,   3,   4,   1,0.98842,  12.7267,1.10000,0.90000,1.10000,0.90000
  3062,'GMC B437    ',  69.0000,1,   3,   4,   1,0.99295,  15.3891,1.10000,0.90000,1.10000,0.90000
  3063,'GUA B337    ',  34.5000,1,   3,   2,   1,1.00691,  18.5230,1.10000,0.90000,1.10000,0.90000
  3064,'GUA B537    ', 138.0000,1,   3,   2,   1,1.00893,  21.1332,1.10000,0.90000,1.10000,0.90000
  3065,'HYO U01     ',   0.4800,4,   3,   1,   2,1.00000,   0.0000,1.10000,0.90000,1.10000,0.90000
  3066,'ISL B334    ',  34.5000,1,   3,   2,   1,1.01351, -23.6541,1.10000,0.90000,1.10000,0.90000
  3067,'ISL B520    ', 138.0000,1,   3,   2,   1,0.99281,  10.6720,1.10000,0.90000,1.10000,0.90000
  3068,'JUT B337    ',  34.5000,2,   3,   4,   1,0.98026,   9.6063,1.10000,0.90000,1.10000,0.90000
  3069,'JUT B438    ',  69.0000,1,   3,   4,   1,0.98593,  12.0192,1.10000,0.90000,1.10000,0.90000
  3070,'LFL B301    ',  34.5000,1,   3,   3,   1,1.01693,  35.3748,1.10000,0.90000,1.10000,0.90000
  3071,'LFL B434    ',  69.0000,1,   3,   3,   1,0.98549,  37.5786,1.10000,0.90000,1.10000,0.90000
  3073,'LIM 69KV    ',  69.0000,1,   3,   1,   1,1.00142,  20.5852,1.10000,0.90000,1.10000,0.90000
  3074,'LLN B213    ',  13.8000,1,   3,   4,   1,0.99637,  -9.0465,1.10000,0.90000,1.10000,0.90000
  3075,'LLN B419    ',  69.0000,1,   3,   4,   1,1.02688,  22.9385,1.10000,0.90000,1.10000,0.90000
  3076,'LNZ B226    ',  13.8000,1,   3,   4,   1,0.99541,  -8.2674,1.10000,0.90000,1.10000,0.90000
  3077,'LNZ B425    ',  69.0000,1,   3,   4,   1,1.02764,  22.9670,1.10000,0.90000,1.10000,0.90000
  3078,'LPT B503    ', 138.0000,1,   3,   1,   1,0.99149,  22.1337,1.10000,0.90000,1.10000,0.90000
  3079,'LSL B628    ', 230.0000,1,   3,   5,   1,1.03587,  30.0744,1.10000,0.90000,1.10000,0.90000
  3080,'LUV B621    ', 230.0000,1,   3,   5,   1,1.03587,  30.0744,1.10000,0.90000,1.10000,0.90000
  3081,'MAS B352    ',  34.5000,1,   3,   1,   1,1.01024,  20.0854,1.10000,0.90000,1.10000,0.90000
  3082,'MAS B544    ', 138.0000,1,   3,   1,   1,0.98820,  22.7941,1.10000,0.90000,1.10000,0.90000
  3083,'MCH B311    ',  34.5000,1,   3,   3,   1,0.98133,  13.6867,1.10000,0.90000,1.10000,0.90000
  3084,'MCH 2.4KV   ',   2.4000,1,   3,   3,   1,1.01796, -20.0320,1.10000,0.90000,1.10000,0.90000
  3085,'MFL B523    ', 138.0000,1,   3,   4,   1,0.98290,  25.4760,1.10000,0.90000,1.10000,0.90000
  3086,'MOR B335    ',  34.5000,1,   3,   1,   1,1.00177,  18.0073,1.10000,0.90000,1.10000,0.90000
  3087,'MOR B435    ',  69.0000,1,   3,   1,   1,1.00076,  20.5983,1.10000,0.90000,1.10000,0.90000
  3088,'NIS B310    ',  34.5000,1,   3,   3,   1,0.98854,  32.9913,1.10000,0.90000,1.10000,0.90000
  3089,'NIS B439    ',  69.0000,1,   3,   3,   1,0.98998,  33.0078,1.10000,0.90000,1.10000,0.90000
  3090,'PAV B363    ',  34.5000,2,   3,   5,   1,0.98938,  25.3752,1.10000,0.90000,1.10000,0.90000
  3091,'PAZ B525    ', 138.0000,1,   3,   4,   1,0.99112,  23.6305,1.10000,0.90000,1.10000,0.90000
  3092,'PAZ B125    ',   4.1600,1,   3,   4,   2,1.00203,  53.2674,1.10000,0.90000,1.10000,0.90000
  3093,'LOS PLANES  ',   0.4000,4,   3,   4,   2,1.00000,   0.0000,1.10000,0.90000,1.10000,0.90000
  3094,'PGR B422    ',  69.0000,1,   3,   1,   1,1.00802,  21.2966,1.10000,0.90000,1.10000,0.90000
  3095,'PGR B603    ', 230.0000,1,   3,   1,   1,0.99762,  24.9222,1.10000,0.90000,1.10000,0.90000
  3096,'BER B206    ',  13.8000,1,   3,   1,   1,1.00738, -12.0057,1.10000,0.90000,1.10000,0.90000
  3097,'RGU B518    ', 138.0000,1,   3,   2,   1,0.99550,  11.2399,1.10000,0.90000,1.10000,0.90000
  3098,'RLN B521    ', 138.0000,1,   3,   1,   1,1.00240,  23.9928,1.10000,0.90000,1.10000,0.90000
  3099,'SFE B303    ',  34.5000,1,   3,   4,   1,0.98774,  23.9276,1.10000,0.90000,1.10000,0.90000
  3100,'SFE B404    ',  69.0000,1,   3,   4,   1,1.02816,  22.9410,1.10000,0.90000,1.10000,0.90000
  3101,'SFE B505    ', 138.0000,1,   3,   4,   1,0.98418,  25.3511,1.10000,0.90000,1.10000,0.90000
  3102,'SGT B374    ',  34.5000,1,   3,   4,   1,0.99763,  20.6159,1.10000,0.90000,1.10000,0.90000
  3103,'SGT 138KV   ', 138.0000,1,   3,   4,   1,0.99311,  23.5548,1.10000,0.90000,1.10000,0.90000
  3104,'SIS B309    ',  34.5000,2,   3,   2,   1,1.01360, -20.1170,1.10000,0.90000,1.10000,0.90000
  3105,'SIS B548    ', 138.0000,1,   3,   2,   1,0.99646,  13.5492,1.10000,0.90000,1.10000,0.90000
  3106,'SLU B321    ',  34.5000,2,   3,   5,   1,0.99691,  27.6727,1.10000,0.90000,1.10000,0.90000
  3108,'SMT B534    ', 138.0000,1,   3,   1,   1,1.00303,  22.6431,1.10000,0.90000,1.10000,0.90000
  3109,'SRS B331    ',  34.5000,4,   3,   3,   1,1.00000,   0.0000,1.10000,0.90000,1.10000,0.90000
  3110,'PNU 69KV    ',  69.0000,1,   3,   4,   1,1.02837,  23.0457,1.10000,0.90000,1.10000,0.90000
  3111,'SRS B433    ',  69.0000,1,   3,   3,   1,0.98999,  41.1325,1.10000,0.90000,1.10000,0.90000
  3112,'SUY B203    ',  13.8000,1,   3,   4,   1,0.98848,  -6.8391,1.10000,0.90000,1.10000,0.90000
  3113,'SUY B418    ',  69.0000,1,   3,   4,   1,1.02952,  23.2393,1.10000,0.90000,1.10000,0.90000
  3114,'BAB U01     ',  13.8000,2,   3,   4,   2,1.00638, -17.9753,1.10000,0.90000,1.10000,0.90000
  3115,'SMR U01     ',  13.8000,4,   3,   4,   1,1.00000,   0.0000,1.10000,0.90000,1.10000,0.90000
  3116,'TAL B404    ',  69.0000,1,   3,   1,   1,1.01501,  22.3591,1.10000,0.90000,1.10000,0.90000
  3117,'TEL B305    ',  34.5000,1,   3,   2,   1,1.00748,  14.6673,1.10000,0.90000,1.10000,0.90000
  3118,'TEL B511    ', 138.0000,1,   3,   2,   1,1.00166,  18.3690,1.10000,0.90000,1.10000,0.90000
  3119,'TON B228    ',  13.8000,1,   3,   4,   1,0.98678,  -4.6267,1.10000,0.90000,1.10000,0.90000
  3120,'TON B535    ', 138.0000,1,   3,   4,   1,0.98582,  25.7291,1.10000,0.90000,1.10000,0.90000
  3121,'TSZ B226    ',  13.8000,1,   3,   1,   1,1.00661,  49.3505,1.10000,0.90000,1.10000,0.90000
  3122,'TSZ B526    ', 138.0000,1,   3,   1,   1,0.98642,  22.7071,1.10000,0.90000,1.10000,0.90000
  3123,'VNU B520    ', 138.0000,1,   3,   1,   1,0.99267,  22.3898,1.10000,0.90000,1.10000,0.90000
  3124,'VNU B322    ',  34.5000,2,   3,   1,   1,1.00728, -11.0257,1.10000,0.90000,1.10000,0.90000
  3125,'RBL U01     ',   4.1600,2,   3,   3,   2,1.01788,  -9.0134,1.10000,0.90000,1.10000,0.90000
  3126,'YOR B336    ',  34.5000,1,   3,   1,   1,0.99004,  16.6676,1.10000,0.90000,1.10000,0.90000
  3127,'ZAM B331    ',  34.5000,1,   3,   4,   1,0.99673,  19.7329,1.10000,0.90000,1.10000,0.90000
  3128,'ZAM B431    ',  69.0000,1,   3,   4,   1,1.00726,  20.7065,1.10000,0.90000,1.10000,0.90000
  3129,'ZAC U01     ',   0.4800,2,   3,   3,   2,1.00743,   2.9913,1.10000,0.90000,1.10000,0.90000
  3130,'CDA B210    ',  13.8000,1,   3,   4,   1,0.99095,  -6.7273,1.10000,0.90000,1.10000,0.90000
  3131,'SUY R212    ',  13.8000,1,   3,   4,   1,0.95785,  -4.3492,1.10000,0.90000,1.10000,0.90000
  3132,'SUY R213    ',  13.8000,1,   3,   4,   1,0.95807,  -4.3474,1.10000,0.90000,1.10000,0.90000
  3133,'PNU 13.8KV  ',  13.8000,1,   3,   4,   1,0.99703,  -7.6140,1.10000,0.90000,1.10000,0.90000
  3134,'LPT B244    ',  13.8000,1,   3,   1,   1,1.01190, -11.1490,1.10000,0.90000,1.10000,0.90000
  3135,'SFE 34.5KV  ',  34.5000,1,   3,   4,   1,0.99924,  22.9410,1.10000,0.90000,1.10000,0.90000
  3136,'BER 13.8KV  ',  13.8000,1,   3,   1,   1,0.99308, -10.0288,1.10000,0.90000,1.10000,0.90000
  3137,'CIR B222    ',  13.8000,1,   3,   1,   1,1.00530, -11.2877,1.10000,0.90000,1.10000,0.90000
  3139,'GEV U01     ',   0.4800,2,   3,   1,   2,1.00392, -42.2651,1.10000,0.90000,1.10000,0.90000
  3140,'RET B257    ',  13.8000,1,   3,   1,   1,0.99434, -10.9806,1.10000,0.90000,1.10000,0.90000
  3141,'DAN B333    ',  34.5000,2,   3,   4,   1,0.99528,  15.4420,1.10000,0.90000,1.10000,0.90000
  3142,'ENF U01     ',   0.4800,2,   3,   1,   2,1.00450, -41.8194,1.10000,0.90000,1.10000,0.90000
  3143,'CHU U01     ',  13.8000,2,   3,   1,   2,1.00450, -41.8194,1.10000,0.90000,1.10000,0.90000
  3144,'LGL U01     ',  13.8000,2,   3,   2,   1,1.01353, -49.4393,1.10000,0.90000,1.10000,0.90000
  3145,'CUY 69      ',  69.0000,1,   3,   1,   2,1.00051,  20.7852,1.10000,0.90000,1.10000,0.90000
  3146,'CUY U01     ',  13.8000,2,   3,   1,   2,1.00000,  -6.2387,1.10000,0.90000,1.10000,0.90000
  3147,'SRS B331    ',  34.5000,4,   3,   3,   1,1.00000,   0.0000,1.10000,0.90000,1.10000,0.90000
  3148,'NIC U05     ',   0.4800,2,   3,   2,   2,1.00361, -18.2897,1.10000,0.90000,1.10000,0.90000
  3149,'RLQ B056    ',   0.4150,1,   3,   3,   2,1.01292, -19.4143,1.10000,0.90000,1.10000,0.90000
  3150,'LNZ B227    ',  13.8000,1,   3,   4,   1,0.99541,  -8.2674,1.10000,0.90000,1.10000,0.90000
  3151,'SGT 34.5KV  ',  34.5000,1,   3,   4,   1,0.98282,  22.4598,1.10000,0.90000,1.10000,0.90000
  3152,'SRS B332    ',  34.5000,1,   3,   3,   1,1.01292,   9.8910,1.10000,0.90000,1.10000,0.90000
  3153,'CYM U01     ',   4.1600,2,   3,   1,   2,1.01005,  -8.8140,1.10000,0.90000,1.10000,0.90000
  3154,'SCA U01     ',   4.1600,2,   3,   1,   2,1.01024,  -9.9146,1.10000,0.90000,1.10000,0.90000
  3155,'TON B610    ', 230.0000,1,   3,   4,   1,1.03142,  27.9177,1.10000,0.90000,1.10000,0.90000
  3156,'NIV U01     ',   0.4800,2,   3,   1,   2,1.01912, -11.8402,1.10000,0.90000,1.10000,0.90000
  3157,'CCE B 329   ',  34.5000,1,   3,   2,   1,1.00553, -24.4923,1.10000,0.90000,1.10000,0.90000
  3158,'COR U01     ',   4.1600,2,   3,   1,   2,1.01000,  -8.6676,1.10000,0.90000,1.10000,0.90000
  3159,'VNU B323    ',  34.5000,1,   3,   1,   1,1.00728, -11.0257,1.10000,0.90000,1.10000,0.90000
  3160,'RET 138KV   ', 138.0000,1,   3,   1,   1,0.99586,  22.1576,1.10000,0.90000,1.10000,0.90000
  3161,'RET B256    ',  13.8000,1,   3,   1,   1,0.99517, -12.1792,1.10000,0.90000,1.10000,0.90000
  3162,'LES U01     ',   4.1600,2,   3,   4,   2,0.99876, -38.3612,1.10000,0.90000,1.10000,0.90000
  3163,'CPA U01     ',   4.1600,2,   3,   1,   2,1.00000, -11.2181,1.10000,0.90000,1.10000,0.90000
  3164,'ISL B331    ',  34.5000,1,   3,   2,   1,1.01492, -22.8230,1.10000,0.90000,1.10000,0.90000
  3165,'PEB U01     ',   4.1600,2,   3,   3,   2,1.01840,  -9.6831,1.10000,0.90000,1.10000,0.90000
  3166,'APC U01     ',   0.4800,2,   3,   3,   2,0.99459, -16.6655,1.10000,0.90000,1.10000,0.90000
  3167,'IHS U01     ',   0.4800,2,   3,   1,   2,1.00728, -41.0257,1.10000,0.90000,1.10000,0.90000
  3168,'ECO U01     ',   0.4800,2,   3,   1,   2,1.00691, -11.4770,1.10000,0.90000,1.10000,0.90000
  3169,'CYR U01     ',   4.1600,2,   3,   4,   1,0.99885, -39.1270,1.10000,0.90000,1.10000,0.90000
  3170,'CUY 69KV    ',  69.0000,1,   3,   1,   1,0.99992,  20.6376,1.10000,0.90000,1.10000,0.90000
  3171,'CRN U01     ',  13.8000,2,   3,   4,   2,0.97879, -17.2583,1.10000,0.90000,1.10000,0.90000
  3173,'LEA U01     ',   4.1600,2,   3,   1,   2,1.00748, -15.3327,1.10000,0.90000,1.10000,0.90000
  3174,'MGG U01     ',   4.1600,2,   3,   1,   2,1.00748, -15.3327,1.10000,0.90000,1.10000,0.90000
  3175,'YOD U01     ',   4.1600,2,   3,   1,   2,0.99004, -13.3324,1.10000,0.90000,1.10000,0.90000
  3176,'ACE U01     ',   4.1600,2,   3,   2,   2,1.01358, -25.3259,1.10000,0.90000,1.10000,0.90000
  3177,'LAU U01     ',   4.1600,2,   3,   1,   2,1.01024,  -9.9146,1.10000,0.90000,1.10000,0.90000
  3178,'TER T537    ',  13.8000,1,   3,   1,   1,0.99651, -11.7443,1.10000,0.90000,1.10000,0.90000
  3179,'TER LVI 138 ', 138.0000,1,   3,   1,   1,0.99755,  23.2656,1.10000,0.90000,1.10000,0.90000
  3180,'CAR B540    ', 138.0000,1,   3,   1,   1,0.99746,  23.3872,1.10000,0.90000,1.10000,0.90000
  3181,'CAR B340    ',  34.5000,2,   3,   1,   1,1.00253, -10.8076,1.10000,0.90000,1.10000,0.90000
  3182,'SJP U01     ',  13.8000,2,   3,   2,   2,1.00000, -16.9023,1.10000,0.90000,1.10000,0.90000
  3183,'LEC B619    ', 230.0000,1,   3,   3,   1,1.03451,  25.8671,1.10000,0.90000,1.10000,0.90000
  3184,'LEC B309    ',  34.5000,1,   3,   3,   1,1.01362,  -5.8468,1.10000,0.90000,1.10000,0.90000
  3185,'NCO B564    ', 138.0000,1,   3,   1,   1,0.98654,  21.8707,1.10000,0.90000,1.10000,0.90000
  3186,'NCO B364    ',  34.5000,1,   3,   1,   1,1.00450, -11.8194,1.10000,0.90000,1.10000,0.90000
  3187,'CYG B315    ',  34.5000,2,   3,   4,   1,0.99369,  -9.1310,1.10000,0.90000,1.10000,0.90000
  3188,'PSM 230     ', 230.0000,1,   3,   5,   2,1.03906,  30.7490,1.10000,0.90000,1.10000,0.90000
  3190,'F-LEC-PAN   ', 230.0000,1,   3,   3,   1,1.03701,  25.8457,1.10000,0.90000,1.10000,0.90000
  3193,'EL ESTADIO  ', 138.0000,1,   3,   1,   1,0.99301,  22.2276,1.10000,0.90000,1.10000,0.90000
  3194,'EST CARGA   ',  13.8000,1,   3,   1,   1,1.00539,  -9.4442,1.10000,0.90000,1.10000,0.90000
  3201,'SOLAR NAC1  ',  34.5000,2,   3,   5,   2,1.03847,  60.1572,1.10000,0.90000,1.10000,0.90000
  3203,'SPS B558    ', 138.0000,1,   3,   1,   1,0.99563,  22.5186,1.10000,0.90000,1.10000,0.90000
  3204,'AGP B556    ', 138.0000,1,   3,   1,   1,1.00315,  23.9984,1.10000,0.90000,1.10000,0.90000
  3205,'ENR B246    ',  13.8000,2,   3,   1,   2,1.01000,  60.4227,1.10000,0.90000,1.10000,0.90000
  3206,'ENR B247    ',  13.8000,2,   3,   1,   2,1.01000,  60.4227,1.10000,0.90000,1.10000,0.90000
  3207,'ENR B248    ',  13.8000,2,   3,   1,   2,1.01000,  60.4227,1.10000,0.90000,1.10000,0.90000
  3208,'ENR B249    ',  13.8000,2,   3,   1,   2,1.01000,  60.4227,1.10000,0.90000,1.10000,0.90000
  3209,'ENR B250    ',  13.8000,2,   3,   1,   2,1.00000,  58.3205,1.10000,0.90000,1.10000,0.90000
  3210,'PSM TER9    ',   0.7000,2,   3,   5,   2,0.98855,   3.8956,1.10000,0.90000,1.10000,0.90000
  3211,'NNC B639    ', 230.0000,1,   3,   5,   1,1.03850,  30.1569,1.10000,0.90000,1.10000,0.90000
  3213,'BCO 138     ', 138.0000,1,   3,   1,   1,0.98360,  23.2381,1.10000,0.90000,1.10000,0.90000
  3214,'BCO 13.8    ',  13.8000,2,   3,   1,   1,1.00000,  -2.2298,1.10000,0.90000,1.10000,0.90000
  3215,'MAT I 4.16  ',   4.2000,2,   3,   1,   1,1.00721,  45.9915,1.10000,0.90000,1.10000,0.90000
  3218,'BETUL 0.48  ',   0.5000,2,   3,   5,   1,0.99368, -22.4442,1.10000,0.90000,1.10000,0.90000
...
0 / END OF BUS DATA, BEGIN LOAD DATA
@!   I,'ID',STAT,AREA,ZONE,      PL,        QL,        IP,        IQ,        YP,        YQ, OWNER,SCALE,INTRPT,  DGENP,     DGENQ,DGENF,'  LOAD TYPE '
  3016,'1 ',   1,   3,   4,     1.923,     0.000,     0.000,     0.000,     0.000,     0.000,   1,    1,  0,     0.000,     0.000,    0,'            '
  3016,'2 ',   1,   3,   4,     1.997,     1.913,     0.000,     0.000,     0.000,     0.000,   1,    1,  0,     0.000,     0.000,    0,'            '
  3016,'3 ',   1,   3,   4,     2.497,     1.086,     0.000,     0.000,     0.000,     0.000,   1,    1,  0,     0.000,     0.000,    0,'            '
  3016,'4 ',   1,   3,   4,     2.941,     0.874,     0.000,     0.000,     0.000,     0.000,   1,    1,  0,     0.000,     0.000,    0,'            '
  3016,'5 ',   1,   3,   4,     1.295,     0.505,     0.000,     0.000,     0.000,     0.000,   1,    1,  0,     0.000,     0.000,    0,'            '
  3016,'6 ',   1,   3,   4,     1.753,     0.769,     0.000,     0.000,     0.000,     0.000,   1,    1,  0,     0.000,     0.000,    0,'            '
  3016,'7 ',   1,   3,   4,     2.458,     0.840,     0.000,     0.000,     0.000,     0.000,   1,    1,  0,     0.000,     0.000,    0,'            '
  3017,'1 ',   1,   3,   1,     2.159,     0.737,     0.000,     0.000,     0.000,     0.000,   1,    1,  0,     0.000,     0.000,    0,'            '
  3017,'2 ',   1,   3,   1,     3.853,     0.948,     0.000,     0.000,     0.000,     0.000,   1,    1,  0,     0.000,     0.000,    0,'            '
  3018,'1 ',   0,   3,   1,     1.970,     0.460,     0.000,     0.000,     0.000,     0.000,   1,    1,  0,     0.000,     0.000,    0,'            '
  3018,'2 ',   1,   3,   1,     0.000,     0.000,     0.000,     0.000,     0.000,     0.000,   1,    1,  0,     0.000,     0.000,    0,'            '
  3022,'1 ',   1,   3,   1,     6.110,     1.914,     0.000,     0.000,     0.000,     0.000,   1,    1,  0,     0.000,     0.000,    0,'            '
  3022,'2 ',   1,   3,   1,     8.889,     2.888,     0.000,     0.000,     0.000,     0.000,   1,    1,  0,     0.000,     0.000,    0,'            '
  3022,'3 ',   1,   3,   1,     1.388,     0.283,     0.000,     0.000,     0.000,     0.000,   1,    1,  0,     0.000,     0.000,    0,'            '
  3022,'4 ',   1,   3,   1,     9.532,     2.440,     0.000,     0.000,     0.000,     0.000,   1,    1,  0,     0.000,     0.000,    0,'            '
  3024,'1 ',   1,   3,   1,     6.298,     1.340,     0.000,     0.000,     0.000,     0.000,   1,    1,  0,     0.000,     0.000,    0,'            '
  3024,'2 ',   1,   3,   1,     9.947,     1.550,     0.000,     0.000,     0.000,     0.000,   1,    1,  0,     0.000,     0.000,    0,'            '
  3024,'3 ',   1,   3,   1,    14.992,     3.592,     0.000,     0.000,     0.000,     0.000,   1,    1,  0,     0.000,     0.000,    0,'            '
  3025,'1 ',   1,   3,   3,    -0.240,    -0.130,     0.000,     0.000,     0.000,     0.000,   2,    0,  0,     0.000,     0.000,    0,'            '
  3026,'1 ',   1,   3,   4,     4.144,     1.455,     0.000,     0.000,     0.000,     0.000,   1,    1,  0,     0.000,     0.000,    0,'            '
  3026,'2 ',   1,   3,   4,     4.472,     1.790,     0.000,     0.000,     0.000,     0.000,   1,    1,  0,     0.000,     0.000,    0,'            '
  3026,'3 ',   1,   3,   4,     3.615,     0.526,     0.000,     0.000,     0.000,     0.000,   1,    1,  0,     0.000,     0.000,    0,'            '
  3026,'4 ',   0,   3,   4,     0.000,     0.000,     0.000,     0.000,     0.000,     0.000,   1,    1,  0,     0.000,     0.000,    0,'            '
  3026,'5 ',   0,   3,   4,     0.000,     0.000,     0.000,     0.000,     0.000,     0.000,   1,    1,  0,     0.000,     0.000,    0,'            '
  3027,'1 ',   1,   3,   2,     2.704,     0.590,     0.000,     0.000,     0.000,     0.000,   1,    1,  0,     0.000,     0.000,    0,'            '
  3027,'2 ',   1,   3,   2,     4.385,     0.814,     0.000,     0.000,     0.000,     0.000,   1,    1,  0,     0.000,     0.000,    0,'            '
  3027,'3 ',   1,   3,   2,    11.202,     2.530,     0.000,     0.000,     0.000,     0.000,   1,    1,  0,     0.000,     0.000,    0,'            '
  3027,'4 ',   1,   3,   2,     9.017,     2.181,     0.000,     0.000,     0.000,     0.000,   1,    1,  0,     0.000,     0.000,    0,'            '
  3028,'1 ',   1,   3,   1,     6.858,     1.769,     0.000,     0.000,     0.000,     0.000,   1,    1,  0,     0.000,     0.000,    0,'            '
  3035,'1 ',   1,   3,   1,     6.027,     1.389,     0.000,     0.000,     0.000,     0.000,   1,    1,  0,     0.000,     0.000,    0,'            '
  3035,'2 ',   1,   3,   1,     3.971,     0.722,     0.000,     0.000,     0.000,     0.000,   1,    1,  0,     0.000,     0.000,    0,'            '
  3035,'3 ',   1,   3,   1,     4.964,     1.443,     0.000,     0.000,     0.000,     0.000,   1,    1,  0,     0.000,     0.000,    0,'            '
  3035,'4 ',   1,   3,   1,     5.685,     0.722,     0.000,     0.000,     0.000,     0.000,   1,    1,  0,     0.000,     0.000,    0,'            '
  3035,'5 ',   0,   3,   1,     6.991,     1.171,     0.000,     0.000,     0.000,     0.000,   1,    1,  0,     0.000,     0.000,    0,'            '
  3036,'1 ',   1,   3,   1,     0.510,    -0.510,     0.000,     0.000,     0.000,     0.000,   1,    0,  0,     0.000,     0.000,    0,'            '
  3039,'1 ',   1,   3,   1,    25.070,     9.980,     0.000,     0.000,     0.000,     0.000,   2,    0,  0,     0.000,     0.000,    0,'            '
  3042,'1 ',   1,   3,   2,     3.416,     0.666,     0.000,     0.000,     0.000,     0.000,   1,    1,  0,     0.000,     0.000,    0,'            '
  3042,'2 ',   1,   3,   2,     9.006,     0.988,     0.000,     0.000,     0.000,     0.000,   1,    1,  0,     0.000,     0.000,    0,'            '
  3042,'3 ',   1,   3,   2,     9.338,     0.716,     0.000,     0.000,     0.000,     0.000,   1,    1,  0,     0.000,     0.000,    0,'            '
  3044,'1 ',   1,   3,   1,     3.105,     0.370,     0.000,     0.000,     0.000,     0.000,   1,    1,  0,     0.000,     0.000,    0,'            '
  3044,'2 ',   1,   3,   1,     3.105,     0.361,     0.000,     0.000,     0.000,     0.000,   1,    1,  0,     0.000,     0.000,    0,'            '
  3046,'1 ',   1,   3,   2,    12.902,     3.182,     0.000,     0.000,     0.000,     0.000,   1,    1,  0,     0.000,     0.000,    0,'            '
  3048,'1 ',   1,   3,   1,     9.206,     2.438,     0.000,     0.000,     0.000,     0.000,   1,    1,  0,     0.000,     0.000,    0,'            '
  3048,'2 ',   1,   3,   1,    10.379,     2.889,     0.000,     0.000,     0.000,     0.000,   1,    1,  0,     0.000,     0.000,    0,'            '
  3048,'3 ',   1,   3,   1,     0.386,     0.009,     0.000,     0.000,     0.000,     0.000,   1,    1,  0,     0.000,     0.000,    0,'            '
  3048,'4 ',   0,   3,   1,    11.705,     4.838,     0.000,     0.000,     0.000,     0.000,   1,    1,  0,     0.000,     0.000,    0,'            '
  3048,'5 ',   0,   3,   1,     8.612,     2.588,     0.000,     0.000,     0.000,     0.000,   1,    1,  0,     0.000,     0.000,    0,'            '
  3050,'1 ',   1,   3,   1,     1.589,     0.406,     0.000,     0.000,     0.000,     0.000,   1,    1,  0,     0.000,     0.000,    0,'            '
  3050,'2 ',   1,   3,   1,     5.795,     0.606,     0.000,     0.000,     0.000,     0.000,   1,    1,  0,     0.000,     0.000,    0,'            '
  3051,'1 ',   1,   3,   1,    11.128,     3.275,     0.000,     0.000,     0.000,     0.000,   1,    1,  0,     0.000,     0.000,    0,'            '
  3051,'2 ',   1,   3,   1,     6.300,     0.506,     0.000,     0.000,     0.000,     0.000,   1,    1,  0,     0.000,     0.000,    0,'            '
  3051,'3 ',   1,   3,   1,    11.254,     3.149,     0.000,     0.000,     0.000,     0.000,   1,    1,  0,     0.000,     0.000,    0,'            '
  3053,'1 ',   1,   3,   3,     3.637,     1.052,     0.000,     0.000,     0.000,     0.000,   1,    1,  0,     0.000,     0.000,    0,'            '
  3053,'2 ',   1,   3,   3,    12.515,     3.247,     0.000,     0.000,     0.000,     0.000,   1,    1,  0,     0.000,     0.000,    0,'            '
  3053,'3 ',   1,   3,   3,     4.919,     1.188,     0.000,     0.000,     0.000,     0.000,   1,    0,  0,     0.000,     0.000,    0,'            '
  3053,'4 ',   1,   3,   3,     4.056,     4.292,     0.000,     0.000,     0.000,     0.000,   1,    1,  0,     0.000,     0.000,    0,'            '
  3053,'5 ',   0,   3,   3,     2.941,     0.201,     0.000,     0.000,     0.000,     0.000,   1,    1,  0,     0.000,     0.000,    0,'            '
  3056,'1 ',   1,   3,   4,     9.895,    -2.183,     0.000,     0.000,     0.000,     0.000,   1,    1,  0,     0.000,     0.000,    0,'            '
  3056,'2 ',   1,   3,   4,     7.823,     1.373,     0.000,     0.000,     0.000,     0.000,   1,    1,  0,     0.000,     0.000,    0,'            '
  3056,'3 ',   1,   3,   4,     6.689,     0.467,     0.000,     0.000,     0.000,     0.000,   1,    1,  0,     0.000,     0.000,    0,'            '
  3056,'4 ',   0,   3,   4,     4.911,     0.360,     0.000,     0.000,     0.000,     0.000,   1,    1,  0,     0.000,     0.000,    0,'            '
  3057,'1 ',   1,   3,   4,     4.171,     0.258,     0.000,     0.000,     0.000,     0.000,   1,    1,  0,     0.000,     0.000,    0,'            '
  3057,'2 ',   0,   3,   4,     3.179,     0.091,     0.000,     0.000,     0.000,     0.000,   1,    1,  0,     0.000,     0.000,    0,'            '
  3061,'1 ',   1,   3,   4,     3.123,     0.073,     0.000,     0.000,     0.000,     0.000,   1,    1,  0,     0.000,     0.000,    0,'            '
  3061,'2 ',   1,   3,   4,     5.776,     0.595,     0.000,     0.000,     0.000,     0.000,   1,    1,  0,     0.000,     0.000,    0,'            '
  3063,'1 ',   1,   3,   2,     1.772,     0.388,     0.000,     0.000,     0.000,     0.000,   1,    1,  0,     0.000,     0.000,    0,'            '
  3063,'2 ',   1,   3,   2,     7.159,     1.621,     0.000,     0.000,     0.000,     0.000,   1,    1,  0,     0.000,     0.000,    0,'            '
  3066,'1 ',   1,   3,   2,     7.459,     1.442,     0.000,     0.000,     0.000,     0.000,   1,    1,  0,     0.000,     0.000,    0,'            '
  3068,'1 ',   1,   3,   4,     7.341,     1.016,     0.000,     0.000,     0.000,     0.000,   1,    1,  0,     0.000,     0.000,    0,'            '
  3068,'2 ',   1,   3,   4,     9.081,     0.120,     0.000,     0.000,     0.000,     0.000,   1,    1,  0,     0.000,     0.000,    0,'            '
  3068,'3 ',   1,   3,   4,     2.843,     0.362,     0.000,     0.000,     0.000,     0.000,   1,    1,  0,     0.000,     0.000,    0,'            '
  3068,'4 ',   1,   3,   4,     1.300,     0.231,     0.000,     0.000,     0.000,     0.000,   1,    1,  0,     0.000,     0.000,    0,'            '
  3070,'1 ',   1,   3,   1,     4.594,    -1.190,     0.000,     0.000,     0.000,     0.000,   1,    1,  0,     0.000,     0.000,    0,'            '
  3073,'1 ',   1,   3,   1,     2.588,     0.351,     0.000,     0.000,     0.000,     0.000,   1,    1,  0,     0.000,     0.000,    0,'            '
  3074,'1 ',   1,   3,   4,     2.858,     1.060,     0.000,     0.000,     0.000,     0.000,   1,    1,  0,     0.000,     0.000,    0,'            '
  3074,'2 ',   1,   3,   4,     3.701,     1.202,     0.000,     0.000,     0.000,     0.000,   1,    1,  0,     0.000,     0.000,    0,'            '
  3074,'3 ',   1,   3,   4,     1.006,     0.225,     0.000,     0.000,     0.000,     0.000,   1,    1,  0,     0.000,     0.000,    0,'            '
  3074,'4 ',   1,   3,   4,     0.813,     0.155,     0.000,     0.000,     0.000,     0.000,   1,    1,  0,     0.000,     0.000,    0,'            '
  3076,'1 ',   1,   3,   4,     0.975,     0.258,     0.000,     0.000,     0.000,     0.000,   1,    1,  0,     0.000,     0.000,    0,'            '
  3076,'2 ',   1,   3,   4,     2.228,     0.198,     0.000,     0.000,     0.000,     0.000,   1,    1,  0,     0.000,     0.000,    0,'            '
  3076,'3 ',   1,   3,   4,     1.707,     0.473,     0.000,     0.000,     0.000,     0.000,   1,    1,  0,     0.000,     0.000,    0,'            '
  3076,'4 ',   0,   3,   4,     1.605,     0.478,     0.000,     0.000,     0.000,     0.000,   1,    1,  0,     0.000,     0.000,    0,'            '
  3081,'1 ',   1,   3,   1,     0.128,     0.109,     0.000,     0.000,     0.000,     0.000,   1,    1,  0,     0.000,     0.000,    0,'            '
  3081,'2 ',   1,   3,   1,    12.582,     2.325,     0.000,     0.000,     0.000,     0.000,   1,    1,  0,     0.000,     0.000,    0,'            '
  3084,'1 ',   1,   3,   3,    12.000,     2.300,     0.000,     0.000,     0.000,     0.000,   1,    0,  0,     0.000,     0.000,    0,'            '
  3086,'1 ',   1,   3,   1,     1.863,     0.380,     0.000,     0.000,     0.000,     0.000,   1,    1,  0,     0.000,     0.000,    0,'            '
  3086,'2 ',   1,   3,   1,     3.948,     0.554,     0.000,     0.000,     0.000,     0.000,   1,    1,  0,     0.000,     0.000,    0,'            '
  3088,'1 ',   1,   3,   3,     0.844,     0.005,     0.000,     0.000,     0.000,     0.000,   1,    1,  0,     0.000,     0.000,    0,'            '
  3088,'2 ',   1,   3,   3,     6.459,     1.475,     0.000,     0.000,     0.000,     0.000,   1,    1,  0,     0.000,     0.000,    0,'            '
  3090,'1 ',   1,   3,   5,     3.208,     0.399,     0.000,     0.000,     0.000,     0.000,   1,    1,  0,     0.000,     0.000,    0,'            '
  3090,'2 ',   1,   3,   5,    13.082,     4.151,     0.000,     0.000,     0.000,     0.000,   1,    1,  0,     0.000,     0.000,    0,'            '
  3090,'3 ',   1,   3,   5,    12.756,     3.444,     0.000,     0.000,     0.000,     0.000,   1,    1,  0,     0.000,     0.000,    0,'            '
  3090,'4 ',   1,   3,   5,     9.447,     2.599,     0.000,     0.000,     0.000,     0.000,   1,    1,  0,     0.000,     0.000,    0,'            '
  3092,'1 ',   1,   3,   4,     2.391,     0.817,     0.000,     0.000,     0.000,     0.000,   2,    0,  0,     0.000,     0.000,    0,'            '
  3096,'1 ',   1,   3,   1,    12.274,     3.880,     0.000,     0.000,     0.000,     0.000,   1,    1,  0,     0.000,     0.000,    0,'            '
  3096,'2 ',   1,   3,   1,     6.409,     1.084,     0.000,     0.000,     0.000,     0.000,   1,    1,  0,     0.000,     0.000,    0,'            '
  3096,'3 ',   1,   3,   1,     1.534,     0.181,     0.000,     0.000,     0.000,     0.000,   1,    1,  0,     0.000,     0.000,    0,'            '
  3096,'4 ',   1,   3,   1,     5.371,     1.597,     0.000,     0.000,     0.000,     0.000,   1,    1,  0,     0.000,     0.000,    0,'            '
  3096,'5 ',   0,   3,   1,     6.548,     1.026,     0.000,     0.000,     0.000,     0.000,   1,    1,  0,     0.000,     0.000,    0,'            '
  3096,'6 ',   0,   3,   1,     7.689,     2.256,     0.000,     0.000,     0.000,     0.000,   1,    1,  0,     0.000,     0.000,    0,'            '
  3099,'1 ',   1,   3,   4,     1.930,     0.306,     0.000,     0.000,     0.000,     0.000,   1,    1,  0,     0.000,     0.000,    0,'            '
  3099,'2 ',   1,   3,   4,     2.533,     0.662,     0.000,     0.000,     0.000,     0.000,   1,    1,  0,     0.000,     0.000,    0,'            '
  3102,'1 ',   1,   3,   4,     5.045,     1.243,     0.000,     0.000,     0.000,     0.000,   1,    1,  0,     0.000,     0.000,    0,'            '
  3104,'1 ',   1,   3,   2,     3.927,     0.842,     0.000,     0.000,     0.000,     0.000,   1,    1,  0,     0.000,     0.000,    0,'            '
  3104,'2 ',   1,   3,   2,     3.577,    -0.507,     0.000,     0.000,     0.000,     0.000,   1,    1,  0,     0.000,     0.000,    0,'            '
  3104,'3 ',   1,   3,   2,     6.833,     1.095,     0.000,     0.000,     0.000,     0.000,   1,    1,  0,     0.000,     0.000,    0,'            '
  3104,'4 ',   1,   3,   2,     8.394,     1.666,     0.000,     0.000,     0.000,     0.000,   1,    1,  0,     0.000,     0.000,    0,'            '
  3106,'1 ',   1,   3,   5,     2.262,     0.359,     0.000,     0.000,     0.000,     0.000,   1,    1,  0,     0.000,     0.000,    0,'            '
  3106,'2 ',   1,   3,   5,     6.215,     1.190,     0.000,     0.000,     0.000,     0.000,   1,    1,  0,     0.000,     0.000,    0,'            '
  3106,'3 ',   1,   3,   5,    12.932,     2.012,     0.000,     0.000,     0.000,     0.000,   1,    1,  0,     0.000,     0.000,    0,'            '
  3106,'4 ',   1,   3,   5,    14.030,     3.158,     0.000,     0.000,     0.000,     0.000,   1,    1,  0,     0.000,     0.000,    0,'            '
  3106,'5 ',   0,   3,   5,   -15.969,    -2.436,     0.000,     0.000,     0.000,     0.000,   1,    0,  0,     0.000,     0.000,    0,'            '
  3109,'2 ',   0,   3,   3,     7.803,     1.970,     0.000,     0.000,     0.000,     0.000,   1,    1,  0,     0.000,     0.000,    0,'            '
  3112,'1 ',   1,   3,   4,     4.552,     1.420,     0.000,     0.000,     0.000,     0.000,   1,    1,  0,     0.000,     0.000,    0,'            '
  3112,'2 ',   1,   3,   4,     3.567,     1.306,     0.000,     0.000,     0.000,     0.000,   1,    1,  0,     0.000,     0.000,    0,'            '
  3112,'3 ',   1,   3,   4,     2.200,     1.060,     0.000,     0.000,     0.000,     0.000,   1,    1,  0,     0.000,     0.000,    0,'            '
  3112,'4 ',   1,   3,   4,     2.875,     0.391,     0.000,     0.000,     0.000,     0.000,   1,    1,  0,     0.000,     0.000,    0,'            '
  3117,'1 ',   1,   3,   2,     9.431,     0.638,     0.000,     0.000,     0.000,     0.000,   1,    1,  0,     0.000,     0.000,    0,'            '
  3117,'2 ',   1,   3,   2,     6.587,     1.343,     0.000,     0.000,     0.000,     0.000,   1,    1,  0,     0.000,     0.000,    0,'            '
  3119,'1 ',   1,   3,   4,     3.330,     0.750,     0.000,     0.000,     0.000,     0.000,   1,    1,  0,     0.000,     0.000,    0,'            '
  3119,'2 ',   1,   3,   4,     4.912,     0.679,     0.000,     0.000,     0.000,     0.000,   1,    1,  0,     0.000,     0.000,    0,'            '
  3119,'3 ',   1,   3,   4,     5.519,     1.983,     0.000,     0.000,     0.000,     0.000,   1,    1,  0,     0.000,     0.000,    0,'            '
  3119,'4 ',   1,   3,   4,     2.497,    -1.067,     0.000,     0.000,     0.000,     0.000,   1,    1,  0,     0.000,     0.000,    0,'            '
  3121,'1 ',   1,   3,   1,     2.509,     0.614,     0.000,     0.000,     0.000,     0.000,   1,    1,  0,     0.000,     0.000,    0,'            '
  3121,'2 ',   1,   3,   1,     6.840,     1.454,     0.000,     0.000,     0.000,     0.000,   1,    1,  0,     0.000,     0.000,    0,'            '
  3121,'3 ',   1,   3,   1,     2.698,    -0.162,     0.000,     0.000,     0.000,     0.000,   1,    1,  0,     0.000,     0.000,    0,'            '
  3121,'4 ',   1,   3,   1,     1.417,    -0.587,     0.000,     0.000,     0.000,     0.000,   1,    1,  0,     0.000,     0.000,    0,'            '
  3124,'1 ',   1,   3,   1,    13.177,     2.528,     0.000,     0.000,     0.000,     0.000,   1,    1,  0,     0.000,     0.000,    0,'            '
  3124,'2 ',   1,   3,   1,     7.852,     2.617,     0.000,     0.000,     0.000,     0.000,   1,    1,  0,     0.000,     0.000,    0,'            '
  3124,'3 ',   0,   3,   1,    15.800,     4.800,     0.000,     0.000,     0.000,     0.000,   1,    1,  0,     0.000,     0.000,    0,'            '
  3124,'4 ',   1,   3,   1,     1.624,     0.181,     0.000,     0.000,     0.000,     0.000,   1,    1,  0,     0.000,     0.000,    0,'            '
  3126,'1 ',   1,   3,   1,     1.579,     0.352,     0.000,     0.000,     0.000,     0.000,   1,    1,  0,     0.000,     0.000,    0,'            '
  3126,'2 ',   1,   3,   1,     0.813,     0.181,     0.000,     0.000,     0.000,     0.000,   1,    1,  0,     0.000,     0.000,    0,'            '
  3126,'3 ',   1,   3,   1,     3.402,     0.443,     0.000,     0.000,     0.000,     0.000,   1,    1,  0,     0.000,     0.000,    0,'            '
  3127,'1 ',   1,   3,   4,     2.116,     0.020,     0.000,     0.000,     0.000,     0.000,   1,    1,  0,     0.000,     0.000,    0,'            '
  3127,'2 ',   1,   3,   4,     1.376,     0.000,     0.000,     0.000,     0.000,     0.000,   1,    1,  0,     0.000,     0.000,    0,'            '
  3127,'3 ',   1,   3,   4,     2.291,     0.301,     0.000,     0.000,     0.000,     0.000,   1,    1,  0,     0.000,     0.000,    0,'            '
  3130,'1 ',   1,   3,   4,     3.966,     1.067,     0.000,     0.000,     0.000,     0.000,   1,    1,  0,     0.000,     0.000,    0,'            '
  3130,'2 ',   1,   3,   4,     3.906,     0.647,     0.000,     0.000,     0.000,     0.000,   1,    1,  0,     0.000,     0.000,    0,'            '
  3130,'3 ',   1,   3,   4,     4.810,     1.738,     0.000,     0.000,     0.000,     0.000,   1,    1,  0,     0.000,     0.000,    0,'            '
  3133,'1 ',   1,   3,   4,     1.213,     0.331,     0.000,     0.000,     0.000,     0.000,   1,    1,  0,     0.000,     0.000,    0,'            '
  3134,'1 ',   1,   3,   1,     5.045,     1.842,     0.000,     0.000,     0.000,     0.000,   1,    1,  0,     0.000,     0.000,    0,'            '
  3134,'2 ',   1,   3,   1,     5.956,     1.236,     0.000,     0.000,     0.000,     0.000,   1,    1,  0,     0.000,     0.000,    0,'            '
  3134,'3 ',   1,   3,   1,     8.232,     2.310,     0.000,     0.000,     0.000,     0.000,   1,    1,  0,     0.000,     0.000,    0,'            '
  3134,'4 ',   0,   3,   1,     0.000,     0.000,     0.000,     0.000,     0.000,     0.000,   1,    1,  0,     0.000,     0.000,    0,'            '
  3136,'1 ',   1,   3,   1,     6.325,    -0.054,     0.000,     0.000,     0.000,     0.000,   1,    1,  0,     0.000,     0.000,    0,'            '
  3137,'1 ',   1,   3,   1,     6.059,     1.692,     0.000,     0.000,     0.000,     0.000,   1,    1,  0,     0.000,     0.000,    0,'            '
  3137,'2 ',   1,   3,   1,     3.573,     0.758,     0.000,     0.000,     0.000,     0.000,   1,    1,  0,     0.000,     0.000,    0,'            '
  3137,'3 ',   1,   3,   1,     9.076,     1.745,     0.000,     0.000,     0.000,     0.000,   1,    1,  0,     0.000,     0.000,    0,'            '
  3139,'1 ',   1,   3,   1,     1.569,     0.112,     0.000,     0.000,     0.000,     0.000,   2,    1,  0,     0.000,     0.000,    0,'            '
  3140,'1 ',   1,   3,   1,     6.587,     2.256,     0.000,     0.000,     0.000,     0.000,   1,    1,  0,     0.000,     0.000,    0,'            '
  3140,'2 ',   1,   3,   1,     6.587,     2.256,     0.000,     0.000,     0.000,     0.000,   1,    1,  0,     0.000,     0.000,    0,'            '
  3141,'1 ',   1,   3,   4,     3.340,     0.400,     0.000,     0.000,     0.000,     0.000,   1,    1,  0,     0.000,     0.000,    0,'            '
  3141,'2 ',   1,   3,   4,     2.188,     0.165,     0.000,     0.000,     0.000,     0.000,   1,    1,  0,     0.000,     0.000,    0,'            '
  3147,'1 ',   0,   3,   3,    10.022,     1.958,     0.000,     0.000,     0.000,     0.000,   1,    1,  0,     0.000,     0.000,    0,'            '
  3149,'1 ',   1,   3,   3,    -0.311,    -0.002,     0.000,     0.000,     0.000,     0.000,   2,    0,  0,     0.000,     0.000,    0,'            '
  3150,'1 ',   1,   3,   4,     1.707,     0.473,     0.000,     0.000,     0.000,     0.000,   1,    1,  0,     0.000,     0.000,    0,'            '
  3150,'2 ',   1,   3,   4,     2.228,     0.198,     0.000,     0.000,     0.000,     0.000,   1,    1,  0,     0.000,     0.000,    0,'            '
  3150,'3 ',   0,   3,   4,     0.949,     0.250,     0.000,     0.000,     0.000,     0.000,   1,    1,  0,     0.000,     0.000,    0,'            '
  3151,'1 ',   1,   3,   4,     6.302,     1.178,     0.000,     0.000,     0.000,     0.000,   1,    1,  0,     0.000,     0.000,    0,'            '
  3152,'1 ',   1,   3,   3,     7.216,     2.767,     0.000,     0.000,     0.000,     0.000,   1,    1,  0,     0.000,     0.000,    0,'            '
  3152,'2 ',   1,   3,   3,     3.808,     0.311,     0.000,     0.000,     0.000,     0.000,   1,    1,  0,     0.000,     0.000,    0,'            '
  3152,'RF',   1,   3,   3,    -3.870,    -2.390,     0.000,     0.000,     0.000,     0.000,   1,    0,  0,     0.000,     0.000,    0,'            '
  3157,'1 ',   1,   3,   2,     3.808,     1.006,     0.000,     0.000,     0.000,     0.000,   1,    1,  0,     0.000,     0.000,    0,'            '
  3157,'2 ',   1,   3,   2,     2.056,     0.374,     0.000,     0.000,     0.000,     0.000,   1,    1,  0,     0.000,     0.000,    0,'            '
  3159,'1 ',   1,   3,   1,    10.649,     2.040,     0.000,     0.000,     0.000,     0.000,   1,    1,  0,     0.000,     0.000,    0,'            '
  3159,'2 ',   1,   3,   1,     7.129,     0.813,     0.000,     0.000,     0.000,     0.000,   1,    1,  0,     0.000,     0.000,    0,'            '
  3161,'1 ',   1,   3,   1,     6.602,     2.263,     0.000,     0.000,     0.000,     0.000,   1,    1,  0,     0.000,     0.000,    0,'            '
  3161,'2 ',   1,   3,   1,     6.602,     2.263,     0.000,     0.000,     0.000,     0.000,   1,    1,  0,     0.000,     0.000,    0,'            '
  3164,'1 ',   1,   3,   2,     5.949,     0.983,     0.000,     0.000,     0.000,     0.000,   1,    1,  0,     0.000,     0.000,    0,'            '
  3164,'2 ',   1,   3,   2,     6.313,     1.869,     0.000,     0.000,     0.000,     0.000,   1,    1,  0,     0.000,     0.000,    0,'            '
  3164,'3 ',   1,   3,   2,     0.622,     0.153,     0.000,     0.000,     0.000,     0.000,   1,    1,  0,     0.000,     0.000,    0,'            '
  3166,'1 ',   1,   3,   3,     2.500,     0.700,     0.000,     0.000,     0.000,     0.000,   2,    0,  0,     0.000,     0.000,    0,'            '
  3181,'1 ',   1,   3,   1,     9.566,     3.069,     0.000,     0.000,     0.000,     0.000,   1,    1,  0,     0.000,     0.000,    0,'            '
  3181,'2 ',   1,   3,   1,     4.495,     0.874,     0.000,     0.000,     0.000,     0.000,   1,    1,  0,     0.000,     0.000,    0,'            '
  3181,'3 ',   0,   3,   1,     3.140,     0.664,     0.000,     0.000,     0.000,     0.000,   1,    1,  0,     0.000,     0.000,    0,'            '
  3181,'4 ',   0,   3,   1,     4.360,     0.543,     0.000,     0.000,     0.000,     0.000,   1,    1,  0,     0.000,     0.000,    0,'            '
  3184,'1 ',   1,   3,   3,     5.909,     0.947,     0.000,     0.000,     0.000,     0.000,   1,    1,  0,     0.000,     0.000,    0,'            '
  3184,'2 ',   1,   3,   3,     5.754,     0.648,     0.000,     0.000,     0.000,     0.000,   1,    1,  0,     0.000,     0.000,    0,'            '
  3184,'3 ',   1,   3,   3,     2.922,     0.743,     0.000,     0.000,     0.000,     0.000,   1,    1,  0,     0.000,     0.000,    0,'            '
  3184,'4 ',   1,   3,   3,     7.242,     1.138,     0.000,     0.000,     0.000,     0.000,   1,    1,  0,     0.000,     0.000,    0,'            '
  3186,'1 ',   1,   3,   1,     8.799,     3.873,     0.000,     0.000,     0.000,     0.000,   1,    1,  0,     0.000,     0.000,    0,'            '
  3186,'2 ',   1,   3,   1,    15.525,     4.333,     0.000,     0.000,     0.000,     0.000,   1,    1,  0,     0.000,     0.000,    0,'            '
  3186,'3 ',   0,   3,   1,    14.466,    14.466,     0.000,     0.000,     0.000,     0.000,   1,    0,  0,     0.000,     0.000,    0,'            '
  3187,'1 ',   1,   3,   4,     1.326,     0.016,     0.000,     0.000,     0.000,     0.000,   1,    1,  0,     0.000,     0.000,    0,'            '
  3187,'2 ',   1,   3,   4,     9.203,     0.688,     0.000,     0.000,     0.000,     0.000,   1,    1,  0,     0.000,     0.000,    0,'            '
  3194,'1 ',   1,   3,   1,     1.648,     0.461,     0.000,     0.000,     0.000,     0.000,   1,    1,  0,     0.000,     0.000,    0,'            '
  3194,'2 ',   1,   3,   1,     2.885,     0.485,     0.000,     0.000,     0.000,     0.000,   1,    1,  0,     0.000,     0.000,    0,'            '
  3213,'1 ',   1,   3,   1,    17.878,    13.146,     0.000,     0.000,     0.000,     0.000,   1,    0,  0,     0.000,     0.000,    0,'            '
  3228,'1 ',   1,   3,   1,    13.000,    -0.710,     0.000,     0.000,     0.000,     0.000,   2,    0,  0,     0.000,     0.000,    0,'            '
  3228,'2 ',   1,   3,   1,     8.000,     2.330,     0.000,     0.000,     0.000,     0.000,   2,    0,  0,     0.000,     0.000,    0,'            '
  3228,'3 ',   1,   3,   1,     9.000,     2.600,     0.000,     0.000,     0.000,     0.000,   2,    0,  0,     0.000,     0.000,    0,'            '
  3244,'1 ',   1,   3,   3,     2.310,     0.509,     0.000,     0.000,     0.000,     0.000,   2,    1,  0,     0.000,     0.000,    0,'            '
  3284,'1 ',   1,   3,   1,     6.185,     1.236,     0.000,     0.000,     0.000,     0.000,   1,    1,  0,     0.000,     0.000,    0,'            '
  3284,'2 ',   1,   3,   1,     3.644,     0.666,     0.000,     0.000,     0.000,     0.000,   1,    1,  0,     0.000,     0.000,    0,'            '
  3290,'1 ',   1,   3,   1,     6.696,     3.185,     0.000,     0.000,     0.000,     0.000,   1,    1,  0,     0.000,     0.000,    0,'            '
  3290,'2 ',   1,   3,   1,     5.136,     0.262,     0.000,     0.000,     0.000,     0.000,   1,    1,  0,     0.000,     0.000,    0,'            '
  3311,'1 ',   1,   3,   5,     6.520,     1.344,     0.000,     0.000,     0.000,     0.000,   1,    1,  0,     0.000,     0.000,    0,'            '
  3316,'1 ',   1,   3,   4,     4.026,     0.571,     0.000,     0.000,     0.000,     0.000,   1,    1,  0,     0.000,     0.000,    0,'            '
  3316,'2 ',   0,   3,   4,     6.041,     1.163,     0.000,     0.000,     0.000,     0.000,   1,    1,  0,     0.000,     0.000,    0,'            '
...
0 / END OF LOAD DATA, BEGIN FIXED SHUNT DATA
@!   I,'ID',STATUS,  GL,        BL
0 / END OF FIXED SHUNT DATA, BEGIN GENERATOR DATA
@!   I,'ID',      PG,        QG,        QT,        QB,     VS,    IREG,NREG,     MBASE,     ZR,         ZX,         RT,         XT,     GTAP,STAT, RMPCT,      PT,        PB,BASLOD,O1,    F1,  O2,    F2,  O3,    F3,  O4,    F4,WMOD, WPF
  3001,'1 ',    54.676,     4.011,    54.750,   -54.750,1.02000,  3001,   0,    91.250, 0.00000E+0, 1.80000E-1, 0.00000E+0, 0.00000E+0,1.00000,1,  100.0,    75.000,     0.000, 0,   1,1.0000
  3002,'1 ',    55.000,     4.031,    54.750,   -54.750,1.02000,  3002,   0,    91.250, 0.00000E+0, 1.80000E-1, 0.00000E+0, 0.00000E+0,1.00000,1,  100.0,    75.000,     0.000, 0,   1,1.0000
  3003,'1 ',     0.000,    -6.072,    54.750,   -54.750,1.00000,  3003,   0,    91.250, 0.00000E+0, 1.80000E-1, 0.00000E+0, 0.00000E+0,1.00000,0,  100.0,    75.000,     0.000, 0,   1,1.0000
  3004,'1 ',     0.000,    10.735,    54.750,   -54.750,1.00000,  3004,   0,    91.250, 0.00000E+0, 1.80000E-1, 0.00000E+0, 0.00000E+0,1.00000,0,  100.0,    75.000,     0.000, 0,   1,1.0000
  3005,'1 ',    14.500,     5.000,     5.000,    -4.000,1.01000,  3005,   0,    17.000, 0.00000E+0, 1.50000E-1, 0.00000E+0, 0.00000E+0,1.00000,1,  100.0,    14.500,     0.000, 0,   1,1.0000
  3006,'1 ',     0.000,     3.489,     5.000,    -4.000,1.00000,  3006,   0,    17.000, 0.00000E+0, 1.20000E-1, 0.00000E+0, 0.00000E+0,1.00000,0,  100.0,    14.500,     0.000, 0,   1,1.0000
  3007,'1 ',    20.000,     6.866,    10.000,   -10.000,1.01000,  3007,   0,    21.053, 0.00000E+0, 1.50000E-1, 0.00000E+0, 0.00000E+0,1.00000,1,  100.0,    20.000,     0.000, 0,   1,1.0000
  3008,'1 ',    20.000,     6.866,    10.000,   -10.000,1.01000,  3008,   0,    21.053, 0.00000E+0, 2.40000E-1, 0.00000E+0, 0.00000E+0,1.00000,1,  100.0,    20.000,     0.000, 0,   1,1.0000
  3009,'1 ',     0.000,     6.338,    10.000,   -10.000,1.00000,  3009,   0,    21.053, 0.00000E+0, 2.10000E-1, 0.00000E+0, 0.00000E+0,1.00000,0,  100.0,    20.000,     0.000, 0,   1,1.0000
  3010,'1 ',     0.000,     2.826,    10.000,   -10.000,1.00000,  3010,   0,    21.053, 0.00000E+0, 2.30000E-1, 0.00000E+0, 0.00000E+0,1.00000,0,  100.0,    20.000,     0.000, 0,   1,1.0000
  3011,'1 ',     0.000,     1.864,     5.000,    -5.000,1.00000,  3011,   0,    25.000, 0.00000E+0, 1.44000E-1, 0.00000E+0, 0.00000E+0,1.00000,0,  100.0,    22.500,     0.000, 0,   1,1.0000
  3012,'1 ',     0.000,     3.417,     7.500,     0.000,1.00000,  3012,   0,    14.450, 0.00000E+0, 2.31000E-1, 0.00000E+0, 0.00000E+0,1.00000,0,  100.0,    10.000,     0.000, 0,   2,1.0000
  3012,'2 ',     0.000,     3.417,     7.500,     0.000,1.00000,  3012,   0,    14.450, 0.00000E+0, 2.31000E-1, 0.00000E+0, 0.00000E+0,1.00000,0,  100.0,    10.000,     0.000, 0,   2,1.0000
  3012,'3 ',     0.000,     3.417,     7.500,     0.000,1.00000,  3012,   0,    14.450, 0.00000E+0, 2.31000E-1, 0.00000E+0, 0.00000E+0,1.00000,0,  100.0,    10.000,     0.000, 0,   2,1.0000
  3013,'1 ',     0.000,     3.417,     7.500,     0.000,1.00000,  3013,   0,    14.450, 0.00000E+0, 2.31000E-1, 0.00000E+0, 0.00000E+0,1.00000,0,  100.0,    10.000,     0.000, 0,   2,1.0000
  3013,'2 ',     0.000,     3.417,     7.500,     0.000,1.00000,  3013,   0,    14.450, 0.00000E+0, 2.31000E-1, 0.00000E+0, 0.00000E+0,1.00000,0,  100.0,    10.000,     0.000, 0,   2,1.0000
  3013,'3 ',     0.000,     3.417,     7.500,     0.000,1.00000,  3013,   0,    14.450, 0.00000E+0, 2.31000E-1, 0.00000E+0, 0.00000E+0,1.00000,0,  100.0,    10.000,     0.000, 0,   2,1.0000
  3014,'1 ',     0.000,     3.671,     7.500,     0.000,1.00000,  3014,   0,    14.450, 0.00000E+0, 2.31000E-1, 0.00000E+0, 0.00000E+0,1.00000,0,  100.0,    10.000,     0.000, 0,   2,1.0000
  3014,'2 ',     0.000,     3.671,     7.500,     0.000,1.00000,  3014,   0,    14.450, 0.00000E+0, 2.31000E-1, 0.00000E+0, 0.00000E+0,1.00000,0,  100.0,    10.000,     0.000, 0,   2,1.0000
  3015,'1 ',     0.000,     0.000,    30.000,     0.000,1.00000,  3015,   0,    57.412, 0.00000E+0, 1.24000E-1, 0.00000E+0, 0.00000E+0,1.00000,0,  100.0,    40.000,     0.000, 0,   2,1.0000
  3017,'1 ',     0.000,     5.088,    11.250,    -3.750,1.00000,  3017,   0,    18.750, 0.00000E+0, 2.00000E-1, 0.00000E+0, 0.00000E+0,1.00000,0,  100.0,    18.000,     0.000, 0,   1,1.0000
  3018,'1 ',     0.000,     3.750,     3.750,    -3.750,1.00000,  3018,   0,    12.500, 0.00000E+0, 2.00000E-1, 0.00000E+0, 0.00000E+0,1.00000,0,  100.0,    15.000,     0.000, 0,   1,1.0000
  3019,'1 ',     0.000,    -1.783,     9.000,    -3.750,1.00000,  3019,   0,    15.000, 0.00000E+0, 2.09000E-1, 0.00000E+0, 0.00000E+0,1.00000,0,  100.0,    11.000,     0.000, 0,   2,1.0000
  3019,'2 ',     0.000,    -1.783,     9.000,    -3.750,1.00000,  3019,   0,    15.000, 0.00000E+0, 2.09000E-1, 0.00000E+0, 0.00000E+0,1.00000,0,  100.0,    11.000,     0.000, 0,   2,1.0000
  3019,'3 ',     0.000,    -1.783,     9.000,    -3.750,1.00000,  3019,   0,    15.000, 0.00000E+0, 2.09000E-1, 0.00000E+0, 0.00000E+0,1.00000,0,  100.0,    11.000,     0.000, 0,   2,1.0000
  3019,'4 ',     0.000,    -1.783,     9.000,    -3.750,1.00000,  3019,   0,    15.000, 0.00000E+0, 2.09000E-1, 0.00000E+0, 0.00000E+0,1.00000,0,  100.0,    11.000,     0.000, 0,   2,1.0000
  3019,'5 ',     0.000,    -1.783,     9.000,    -3.750,1.00000,  3019,   0,    15.000, 0.00000E+0, 2.09000E-1, 0.00000E+0, 0.00000E+0,1.00000,0,  100.0,    11.000,     0.000, 0,   2,1.0000
  3020,'1 ',     0.000,     5.241,     5.625,    -1.875,1.00000,  3020,   0,    10.000, 0.00000E+0, 3.82000E-1, 0.00000E+0, 0.00000E+0,1.00000,0,  100.0,     7.500,     0.000, 0,   1,1.0000
  3020,'2 ',     0.000,     0.979,     5.625,    -1.875,1.00000,  3020,   0,    10.000, 0.00000E+0, 3.82000E-1, 0.00000E+0, 0.00000E+0,1.00000,0,  100.0,     7.500,     0.000, 0,   1,1.0000
  3020,'3 ',     0.000,     0.326,     5.625,    -1.875,1.00000,  3020,   0,    10.000, 0.00000E+0, 3.82000E-1, 0.00000E+0, 0.00000E+0,1.00000,0,  100.0,     7.500,     0.000, 0,   1,1.0000
  3020,'4 ',     0.000,     4.024,     5.625,    -1.875,1.00000,  3020,   0,    10.000, 0.00000E+0, 3.82000E-1, 0.00000E+0, 0.00000E+0,1.00000,0,  100.0,     7.500,     0.000, 0,   1,1.0000
  3021,'1 ',     0.000,     0.643,     5.625,    -1.875,1.00000,  3021,   0,     9.375, 0.00000E+0, 2.90000E-1, 0.00000E+0, 0.00000E+0,1.00000,0,  100.0,     7.500,     0.000, 0,   1,1.0000
  3021,'2 ',     0.000,     0.643,     5.625,    -1.875,1.00000,  3021,   0,     9.375, 0.00000E+0, 2.90000E-1, 0.00000E+0, 0.00000E+0,1.00000,0,  100.0,     7.500,     0.000, 0,   1,1.0000
  3021,'3 ',     0.000,     0.643,     5.625,    -1.875,1.00000,  3021,   0,     9.375, 0.00000E+0, 2.90000E-1, 0.00000E+0, 0.00000E+0,1.00000,0,  100.0,     7.500,     0.000, 0,   1,1.0000
  3021,'4 ',     0.000,     0.643,     5.625,    -1.875,1.00000,  3021,   0,     9.375, 0.00000E+0, 2.90000E-1, 0.00000E+0, 0.00000E+0,1.00000,0,  100.0,     7.500,     0.000, 0,   1,1.0000
  3023,'1 ',     0.000,    -2.109,     2.300,    -2.300,1.00000,  3023,   0,     8.312, 0.00000E+0, 2.27000E-1, 0.00000E+0, 0.00000E+0,1.00000,0,  100.0,     6.000,     0.000, 0,   1,1.0000
  3023,'2 ',     0.000,    -1.054,     1.500,    -1.500,1.00000,  3023,   0,     8.312, 0.00000E+0, 2.27000E-1, 0.00000E+0, 0.00000E+0,1.00000,0,  100.0,     6.000,     0.000, 0,   1,1.0000
  3023,'3 ',     0.000,     1.120,     1.500,    -1.500,1.00000,  3023,   0,     8.312, 0.00000E+0, 2.27000E-1, 0.00000E+0, 0.00000E+0,1.00000,0,  100.0,     6.000,     0.000, 0,   1,1.0000
  3023,'4 ',     0.000,     1.500,     1.500,    -1.500,1.00000,  3023,   0,     8.312, 0.00000E+0, 2.27000E-1, 0.00000E+0, 0.00000E+0,1.00000,0,  100.0,     6.000,     0.000, 0,   1,1.0000
  3042,'1 ',     0.000,    -1.100,     1.100,    -1.100,1.00000,  3042,   0,     2.100, 0.00000E+0, 2.90000E-1, 0.00000E+0, 0.00000E+0,1.00000,0,  100.0,     2.000,     0.000, 0,   1,1.0000
  3065,'1 ',     0.000,    -0.019,     0.000,     0.000,1.00000,  3065,   0,     0.625, 0.00000E+0, 2.90000E-1, 0.00000E+0, 0.00000E+0,1.00000,0,  100.0,     0.500,     0.000, 0,   2,1.0000
  3068,'1 ',     0.000,    -2.500,    14.520,   -14.520,1.00000,  3068,   0,    33.300, 0.00000E+0, 2.27000E-1, 0.00000E+0, 0.00000E+0,1.00000,0,  100.0,    30.000,     0.000, 0,   1,1.0000
...